test/fixtures/powermodels/case5_pwlc/sol_dc_opf.json
{
  "termination_status": "OPTIMAL",
  "objective": 42575.75513196482,
  "solution": {
    "dcline": {
      "1": {
        "qf": null,
        "qt": null,
        "p_dc_cost": 0.0,
        "pt": -4.91922351733277,
        "pf": 4.91922351733277
      }
    },
    "baseMVA": 100.0,
    "branch": {
      "4": {
        "qf": null,
        "qt": null,
        "pt": 1.9903070194638008,
        "pf": -1.9903070194638008
      },
      "1": {
        "qf": null,
        "qt": null,
        "pt": -1.0096929805362,
        "pf": 1.0096929805362
      },
      "5": {
        "qf": null,
        "qt": null,
        "pt": -0.2096929805361994,
        "pf": 0.2096929805361994
      },
      "2": {
        "qf": null,
        "qt": null,
        "pt": -0.43108350213102936,
        "pf": 0.43108350213102936
      },
      "6": {
        "qf": null,
        "qt": null,
        "pt": 1.359223517332771,
        "pf": -1.359223517332771
      },
      "3": {
        "qf": null,
        "qt": null,
        "pt": 4.26,
        "pf": -4.26
      }
    },
    "gen": {
      "4": {
        "qg": null,
        "pg": 0.0,
        "pg_cost": 10.0
      },
      "1": {
        "qg": null,
        "pg": 0.4,
        "pg_cost": 0.0
      },
      "5": {
        "qg": null,
        "pg": 2.0,
        "pg_cost": 6464.545454545452
      },
      "2": {
        "qg": null,
        "pg": 1.7,
        "pg_cost": 841.0
      },
      "6": {
        "qg": null,
        "pg": 0.7000000000000011,
        "pg_cost": 20511.000000000015
      },
      "3": {
        "qg": null,
        "pg": 5.2,
        "pg_cost": 14749.209677419358
      }
    },
    "multiinfrastructure": false,
    "multinetwork": false,
    "bus": {
      "4": {
        "va": -0.0,
        "vm": 1.0
      },
      "1": {
        "va": 0.013235987849431126,
        "vm": 1.0
      },
      "10": {
        "va": 0.04077262784943113,
        "vm": 1.0
      },
      "2": {
        "va": -0.015420108631166768,
        "vm": 1.0
      },
      "3": {
        "va": 0.006290160337144373,
        "vm": 1.0
      }
    },
    "per_unit": true
  }
}

